Circuit: * C:\Users\pabsanber\Desktop\otros\in3\in3\IN3_hardware\simulations\Draft1.asc

Direct Newton iteration for .op point succeeded.

Date: Sun May 24 00:12:05 2020
Total elapsed time: 0.160 seconds.

tnom = 27
temp = 27
method = modified trap
totiter = 9530
traniter = 9520
tranpoints = 2825
accept = 2434
rejected = 391
matrix size = 15
fillins = 5
solver = Normal
Matrix Compiler1: 898 bytes object code size  0.3/0.1/[0.1]
Matrix Compiler2: 1.22 KB object code size  0.1/0.2/[0.1]

