Circuit: * C:\Users\pabsanber\Desktop\otros\in3\in3\IN3_hardware\simulations\Op amps.asc

Direct Newton iteration failed to find .op point.  (Use ".option noopiter" to skip.)
Starting Gmin stepping
Gmin = 10
Gmin = 1.07374
Gmin = 0.115292
Gmin = 0.0123794
Gmin = 0.00132923
Gmin = 0.000142725
Gmin = 1.5325e-005
Gmin = 1.6455e-006
Gmin = 1.76685e-007
Gmin = 1.89714e-008
Gmin = 2.03704e-009
Gmin = 2.18725e-010
Gmin = 2.34854e-011
Gmin = 2.52173e-012
Gmin = 2.70769e-013
Gmin = 0
Gmin stepping succeeded in finding the operating point.


Date: Sun May 03 12:42:30 2020
Total elapsed time: 0.205 seconds.

tnom = 27
temp = 27
method = modified trap
totiter = 2582
traniter = 2108
tranpoints = 1055
accept = 1055
rejected = 0
matrix size = 32
fillins = 47
solver = Normal
Thread vector: 8.0/6.7[3] 3.4/2.5[3] 1.5/1.7[1] 0.2/0.8[1]  2592/500
Matrix Compiler1: 6.64 KB object code size  1.2/0.8/[0.4]
Matrix Compiler2: 4.17 KB object code size  0.6/0.7/[0.3]

